/*--------------------------------*- C++ -*----------------------------------*\
| =========                 |                                                 |
| \\      /  F ield         | OpenFOAM: The Open Source CFD Toolbox           |
|  \\    /   O peration     | Version:  1.5                                   |
|   \\  /    A nd           | Web:      http://www.OpenFOAM.org               |
|    \\/     M anipulation  |                                                 |
\*---------------------------------------------------------------------------*/
FoamFile
{
    version     2.0;
    format      ascii;
    class       dictionary;
    location    "system";
    object      fvSolution;
}
// * * * * * * * * * * * * * * * * * * * * * * * * * * * * * * * * * * * * * //

solvers
{

    phiN
    {
	solver		 PBiCG;
        preconditioner   DILU;
        tolerance        1e-08;
        relTol           0.;
    }

    phiM
    {
	solver		 PBiCG;
        preconditioner   DILU;
        tolerance        1e-08;
        relTol           0.;
    }

}


SIMPLE
{
    	nNonOrthogonalCorrectors 0;
}

relaxationFactors
{
    phiN	0.3;
    phiM	0.3;
}

// ************************************************************************* //
