/*--------------------------------*- C++ -*----------------------------------*\
| =========                 |                                                 |
| \\      /  F ield         | OpenFOAM: The Open Source CFD Toolbox           |
|  \\    /   O peration     | Version:  2.1.x                                 |
|   \\  /    A nd           | Web:      www.OpenFOAM.org                      |
|    \\/     M anipulation  |                                                 |
\*---------------------------------------------------------------------------*/
FoamFile
{
    version     2.0;
    format      ascii;
    class       volScalarField;
    location    "0";
    object      H;
}
// * * * * * * * * * * * * * * * * * * * * * * * * * * * * * * * * * * * * * //


dimensions    [ 0 2 -2 0 0 0 0 ];


internalField   uniform -8189.5;

boundaryField
{
    inletfuel           
    {
        type  		fixedValue;
 	value 		uniform 1.90753e06;
    }

    inletair           
    {
        type  		fixedValue;
 	value 		uniform -8189.5;
    }

    outlet          
    {
        type  		zeroGradient;
    }

    leftside       
    {
        type  		zeroGradient;
    }

    burnerwall
    {
        type  		zeroGradient;
    }

    front
    {
        type            wedge;
    }

    back
    {
        type            wedge;
    }

    axis
    {
        type            empty;
    }
}


// ************************************************************************* //
